<?xml version="1.0" encoding="UTF-8"?>

<!-- generated on 2022-11-30 21:01:44 by Eclipse SUMO duarouter Version 1.12.0
<configuration xmlns:xsi="http://www.w3.org/2001/XMLSchema-instance" xsi:noNamespaceSchemaLocation="http://sumo.dlr.de/xsd/duarouterConfiguration.xsd">

    <input>
        <net-file value="3_4trafficgrid.net.xml"/>
        <route-files value="rtraffic1.trips.trips.xml"/>
    </input>

    <output>
        <output-file value="resultgrid30.rou.xml"/>
        <alternatives-output value="resultgrid30.rou.alt.xml"/>
    </output>

</configuration>
-->

<routes xmlns:xsi="http://www.w3.org/2001/XMLSchema-instance" xsi:noNamespaceSchemaLocation="http://sumo.dlr.de/xsd/routes_file.xsd">
    <vehicle id="0" depart="0.00">
        <route edges="E16 -E3 -E2 -E1"/>
    </vehicle>
    <vehicle id="1" depart="10.29">
        <route edges="-E24 E25 E27 E28 -E20"/>
    </vehicle>
    <vehicle id="2" depart="20.57">
        <route edges="E21 E19 E20 E9 -E14 E17 E18"/>
    </vehicle>
    <vehicle id="3" depart="30.86">
        <route edges="E30 -E19 -E18 -E17 -E13"/>
    </vehicle>
    <vehicle id="4" depart="41.14">
        <route edges="-E5 -E4 -E3 -E2 -E1"/>
    </vehicle>
    <vehicle id="5" depart="51.43">
        <route edges="-E20 -E19 -E21 E15 -E10 -E16 E0"/>
    </vehicle>
    <vehicle id="6" depart="61.71">
        <route edges="-E1 E16 -E3 -E2"/>
    </vehicle>
    <vehicle id="7" depart="72.00">
        <route edges="E17 E18 E19 E20 -E8 -E5 -E4 E10"/>
    </vehicle>
    <vehicle id="8" depart="82.29">
        <route edges="-E20 -E19 -E21 E15 E11 E13"/>
    </vehicle>
    <vehicle id="9" depart="92.57">
        <route edges="E26 -E5 E6 -E0"/>
    </vehicle>
    <vehicle id="10" depart="102.86">
        <route edges="E25 E26 E7 -E10 -E16 E1 E2"/>
    </vehicle>
    <vehicle id="11" depart="113.14">
        <route edges="-E28 E29 E30 -E19 -E18 -E17"/>
    </vehicle>
    <vehicle id="12" depart="123.43">
        <route edges="E7 -E15 -E9 -E28 -E27"/>
    </vehicle>
    <vehicle id="13" depart="133.71">
        <route edges="-E13"/>
    </vehicle>
    <vehicle id="14" depart="144.00">
        <route edges="E28 E9 E15 E11 E13 E14"/>
    </vehicle>
    <vehicle id="15" depart="154.29">
        <route edges="E26 E7 -E15 E21"/>
    </vehicle>
    <vehicle id="16" depart="164.57">
        <route edges="E10 -E7 E8"/>
    </vehicle>
    <vehicle id="17" depart="174.86">
        <route edges="-E3 E12 E13 E14 E15 E11"/>
    </vehicle>
    <vehicle id="18" depart="185.14">
        <route edges="E27 E28 E9 E15"/>
    </vehicle>
    <vehicle id="19" depart="195.43">
        <route edges="E29 E30 -E19 -E21 E15 -E10 -E3 E12"/>
    </vehicle>
    <vehicle id="20" depart="205.71">
        <route edges="E2 E12 -E11 -E10"/>
    </vehicle>
    <vehicle id="21" depart="216.00">
        <route edges="-E21 E15 -E10 E4 -E24"/>
    </vehicle>
    <vehicle id="22" depart="226.29">
        <route edges="-E12 E3 E4 E5 E8 -E20 -E19 -E21"/>
    </vehicle>
    <vehicle id="23" depart="236.57">
        <route edges="-E14 -E13 -E12 E3 E4 -E24"/>
    </vehicle>
    <vehicle id="24" depart="246.86">
        <route edges="E16 E10 -E15 E21 E19 -E30 -E29"/>
    </vehicle>
    <vehicle id="25" depart="257.14">
        <route edges="-E29 -E27 -E25 E24 -E4 -E3 -E2"/>
    </vehicle>
    <vehicle id="26" depart="267.43">
        <route edges="-E23 -E22 -E0 E16 E4 E6"/>
    </vehicle>
    <vehicle id="27" depart="277.71">
        <route edges="E17 E18 -E21 E15 E11 E13 E14"/>
    </vehicle>
    <vehicle id="28" depart="288.00">
        <route edges="-E18 -E17 E14 E21"/>
    </vehicle>
    <vehicle id="29" depart="298.29">
        <route edges="-E18 -E17 -E13 -E11 -E10 -E3"/>
    </vehicle>
    <vehicle id="30" depart="308.57">
        <route edges="E9 -E14 -E13 -E12 -E2 -E1 E16"/>
    </vehicle>
    <vehicle id="31" depart="318.86">
        <route edges="E11 E13 E17 E18 E19"/>
    </vehicle>
    <vehicle id="32" depart="329.14">
        <route edges="E28 -E8 -E26 -E25 E24"/>
    </vehicle>
    <vehicle id="33" depart="339.43">
        <route edges="-E21 -E14 -E13 -E12 -E2 -E1"/>
    </vehicle>
    <vehicle id="34" depart="349.71">
        <route edges="-E26 -E25 -E23"/>
    </vehicle>
    <vehicle id="35" depart="360.00">
        <route edges="-E20 -E30 -E29 -E27 -E25 E24 E6"/>
    </vehicle>
    <vehicle id="36" depart="370.29">
        <route edges="E3 E4 E5 -E26"/>
    </vehicle>
    <vehicle id="37" depart="380.57">
        <route edges="E17 E18 E19 -E30"/>
    </vehicle>
    <vehicle id="38" depart="390.86">
        <route edges="E4 E6 -E0 E16 E10 -E7"/>
    </vehicle>
    <vehicle id="39" depart="401.14">
        <route edges="-E23 -E22"/>
    </vehicle>
    <vehicle id="40" depart="411.43">
        <route edges="E11 -E12 E3 E4 -E24 -E23"/>
    </vehicle>
    <vehicle id="41" depart="421.71">
        <route edges="E13 E14 -E9 -E28 E29 E30"/>
    </vehicle>
    <vehicle id="42" depart="432.00">
        <route edges="-E30 -E29 E28 -E20"/>
    </vehicle>
    <vehicle id="43" depart="442.29">
        <route edges="E9 E15 -E10 -E16 E0"/>
    </vehicle>
    <vehicle id="44" depart="452.57">
        <route edges="-E13 -E11 -E10"/>
    </vehicle>
    <vehicle id="45" depart="462.86">
        <route edges="-E14 E17 E18 -E21 E15"/>
    </vehicle>
    <vehicle id="46" depart="473.14">
        <route edges="E25 E26 -E5"/>
    </vehicle>
    <vehicle id="47" depart="483.43">
        <route edges="-E11 -E10 -E3"/>
    </vehicle>
    <vehicle id="48" depart="493.71">
        <route edges="E9 E15 -E10 -E16 E1"/>
    </vehicle>
    <vehicle id="49" depart="504.00">
        <route edges="E8 -E28 E29"/>
    </vehicle>
    <vehicle id="50" depart="514.29">
        <route edges="-E0 E16 E10 -E15 E21 E19 E20"/>
    </vehicle>
    <vehicle id="51" depart="524.57">
        <route edges="E19 E20 -E8 -E5 -E4 E10"/>
    </vehicle>
    <vehicle id="52" depart="534.86">
        <route edges="-E23 -E22 -E0 E16"/>
    </vehicle>
    <vehicle id="53" depart="545.14">
        <route edges="-E14 -E13 -E11 -E7 -E5"/>
    </vehicle>
    <vehicle id="54" depart="555.43">
        <route edges="-E7 -E26 -E25 E24 E5 E7"/>
    </vehicle>
    <vehicle id="55" depart="565.71">
        <route edges="E3 E4 -E24 -E23"/>
    </vehicle>
    <vehicle id="56" depart="576.00">
        <route edges="E0 -E6 E5 E8 -E20 -E19"/>
    </vehicle>
    <vehicle id="57" depart="586.29">
        <route edges="E4 -E24 E25 E27 E29"/>
    </vehicle>
    <vehicle id="58" depart="596.57">
        <route edges="-E25 -E23 -E22 -E0 E16"/>
    </vehicle>
    <vehicle id="59" depart="606.86">
        <route edges="E14 E21 -E18 -E17"/>
    </vehicle>
    <vehicle id="60" depart="617.14">
        <route edges="E23 E24 -E4 E10"/>
    </vehicle>
    <vehicle id="61" depart="627.43">
        <route edges="E24 -E4 -E16 E1"/>
    </vehicle>
    <vehicle id="62" depart="637.71">
        <route edges="-E0 E16 E10 -E15 -E9 -E28 -E27"/>
    </vehicle>
    <vehicle id="63" depart="648.00">
        <route edges="-E1 E0 -E6 E5"/>
    </vehicle>
    <vehicle id="64" depart="658.29">
        <route edges="E3 E4 -E24 E25 E27"/>
    </vehicle>
    <vehicle id="65" depart="668.57">
        <route edges="-E26 -E25 E24 -E4 -E3 E12 -E11"/>
    </vehicle>
    <vehicle id="66" depart="678.86">
        <route edges="E3 E4 E6"/>
    </vehicle>
    <vehicle id="67" depart="689.14">
        <route edges="-E13 -E11 -E15 -E9"/>
    </vehicle>
    <vehicle id="68" depart="699.43">
        <route edges="-E12 -E2 -E1 E0 E22 E23"/>
    </vehicle>
    <vehicle id="69" depart="709.71">
        <route edges="E23 E25 E26 E7 -E15"/>
    </vehicle>
    <vehicle id="70" depart="720.00">
        <route edges="-E8 E7 E11"/>
    </vehicle>
    <vehicle id="71" depart="730.29">
        <route edges="-E23 -E22 -E0 E1 E2 E3"/>
    </vehicle>
    <vehicle id="72" depart="740.57">
        <route edges="-E5 -E4 E10 -E15 -E9 -E20"/>
    </vehicle>
    <vehicle id="73" depart="750.86">
        <route edges="E10 -E15 E21"/>
    </vehicle>
    <vehicle id="74" depart="761.14">
        <route edges="-E2 -E1 E0 -E6 E5 -E26"/>
    </vehicle>
    <vehicle id="75" depart="771.43">
        <route edges="E9 -E14 E17"/>
    </vehicle>
    <vehicle id="76" depart="781.71">
        <route edges="-E6 -E4 -E16 E1"/>
    </vehicle>
    <vehicle id="77" depart="792.00">
        <route edges="-E15 -E9 -E20"/>
    </vehicle>
    <vehicle id="78" depart="802.29">
        <route edges="-E27 E26 E7 E11 E13"/>
    </vehicle>
    <vehicle id="79" depart="812.57">
        <route edges="-E21 -E9 -E20"/>
    </vehicle>
    <vehicle id="80" depart="822.86">
        <route edges="-E12 -E2 -E1 E16"/>
    </vehicle>
    <vehicle id="81" depart="833.14">
        <route edges="-E21 E15 -E10 E4"/>
    </vehicle>
    <vehicle id="82" depart="843.43">
        <route edges="E29 E30 -E19 -E18 -E17 -E13 -E12"/>
    </vehicle>
    <vehicle id="83" depart="853.71">
        <route edges="-E21 -E14 E17 E18"/>
    </vehicle>
    <vehicle id="84" depart="864.00">
        <route edges="-E20 -E19 -E21 E15 -E10 -E16"/>
    </vehicle>
    <vehicle id="85" depart="874.29">
        <route edges="E6 -E0 E1 E2 E12"/>
    </vehicle>
    <vehicle id="86" depart="884.57">
        <route edges="-E8 -E26 -E25 E24"/>
    </vehicle>
    <vehicle id="87" depart="894.86">
        <route edges="E26 E8 -E20 -E19"/>
    </vehicle>
    <vehicle id="88" depart="905.14">
        <route edges="-E14 -E13 -E11 -E7 -E5"/>
    </vehicle>
    <vehicle id="89" depart="915.43">
        <route edges="-E5 -E4 E10 -E7"/>
    </vehicle>
    <vehicle id="90" depart="925.71">
        <route edges="E21 E19 E20 E9 -E14 E17 E18"/>
    </vehicle>
    <vehicle id="91" depart="936.00">
        <route edges="E9 -E14"/>
    </vehicle>
    <vehicle id="92" depart="946.29">
        <route edges="-E30 -E29 -E27 E26 E8 -E28"/>
    </vehicle>
    <vehicle id="93" depart="956.57">
        <route edges="E29 E30 E20 -E8 -E5 -E24 -E23 -E22"/>
    </vehicle>
    <vehicle id="94" depart="966.86">
        <route edges="-E19 -E21 E15 -E10 -E16 E0 -E6"/>
    </vehicle>
    <vehicle id="95" depart="977.14">
        <route edges="-E5 -E24"/>
    </vehicle>
    <vehicle id="96" depart="987.43">
        <route edges="-E22 -E6 E5"/>
    </vehicle>
    <vehicle id="97" depart="997.71">
        <route edges="-E6 -E24 E25 E27 E29"/>
    </vehicle>
    <vehicle id="98" depart="1008.00">
        <route edges="E11 E13 E14 E15 -E10 -E3 E12 -E11"/>
    </vehicle>
    <vehicle id="99" depart="1018.29">
        <route edges="E9 E15 -E7 -E26 E27"/>
    </vehicle>
    <vehicle id="100" depart="1028.57">
        <route edges="E8 -E28 -E27 -E25 E24 E5"/>
    </vehicle>
    <vehicle id="101" depart="1038.86">
        <route edges="E28 -E20 -E19 -E18"/>
    </vehicle>
    <vehicle id="102" depart="1049.14">
        <route edges="-E9 -E20"/>
    </vehicle>
    <vehicle id="103" depart="1059.43">
        <route edges="-E30 -E29 E28 E9 -E14 -E13 -E11"/>
    </vehicle>
    <vehicle id="104" depart="1069.71">
        <route edges="-E3 E12 -E11 -E7 E8 E9"/>
    </vehicle>
    <vehicle id="105" depart="1080.00">
        <route edges="-E23 -E22 -E6 E5 -E26 -E25 E24"/>
    </vehicle>
    <vehicle id="106" depart="1090.29">
        <route edges="-E7 -E5"/>
    </vehicle>
    <vehicle id="107" depart="1100.57">
        <route edges="E7 -E15 E21 E19 E20 E9"/>
    </vehicle>
    <vehicle id="108" depart="1110.86">
        <route edges="E11 E13 E17 E18 E19 E20"/>
    </vehicle>
    <vehicle id="109" depart="1121.14">
        <route edges="-E17 -E13 -E11 -E7 -E26 -E25"/>
    </vehicle>
    <vehicle id="110" depart="1131.43">
        <route edges="E8 E9 E15 -E10 -E3 E12"/>
    </vehicle>
    <vehicle id="111" depart="1141.71">
        <route edges="E10 -E7 -E5 E6 E22"/>
    </vehicle>
    <vehicle id="112" depart="1152.00">
        <route edges="-E11 -E10 -E3 E12 E13"/>
    </vehicle>
    <vehicle id="113" depart="1162.29">
        <route edges="E0 E22 E23 E25 E27 E28"/>
    </vehicle>
    <vehicle id="114" depart="1172.57">
        <route edges="-E17 E14 -E9 -E8 E7"/>
    </vehicle>
    <vehicle id="115" depart="1182.86">
        <route edges="-E12 E3 E4 E5 E8 -E20 -E19"/>
    </vehicle>
    <vehicle id="116" depart="1193.14">
        <route edges="E13 E17 E18"/>
    </vehicle>
    <vehicle id="117" depart="1203.43">
        <route edges="-E21 -E9 -E8 E7 -E15"/>
    </vehicle>
    <vehicle id="118" depart="1213.71">
        <route edges="E30 E20 -E8 -E5 -E24 -E23 -E22"/>
    </vehicle>
    <vehicle id="119" depart="1224.00">
        <route edges="E13 E14 E15"/>
    </vehicle>
    <vehicle id="120" depart="1234.29">
        <route edges="-E4 -E3 E12 E13"/>
    </vehicle>
    <vehicle id="121" depart="1244.57">
        <route edges="E1 E2 E3 E4 E5"/>
    </vehicle>
    <vehicle id="122" depart="1254.86">
        <route edges="-E2 -E1 E16 E10 -E15 E21 E19 E20"/>
    </vehicle>
    <vehicle id="123" depart="1265.14">
        <route edges="-E21 -E9 -E20 -E30"/>
    </vehicle>
    <vehicle id="124" depart="1275.43">
        <route edges="E18 E19 -E30 -E29 -E27 -E25"/>
    </vehicle>
    <vehicle id="125" depart="1285.71">
        <route edges="-E26 -E25 E24 E6 E22"/>
    </vehicle>
    <vehicle id="126" depart="1296.00">
        <route edges="-E12 E3 E10 -E7"/>
    </vehicle>
    <vehicle id="127" depart="1306.29">
        <route edges="E9"/>
    </vehicle>
    <vehicle id="128" depart="1316.57">
        <route edges="-E12 E3 E4 E5 E8 -E20"/>
    </vehicle>
    <vehicle id="129" depart="1326.86">
        <route edges="-E23 -E22 -E6 E5"/>
    </vehicle>
    <vehicle id="130" depart="1337.14">
        <route edges="E3"/>
    </vehicle>
    <vehicle id="131" depart="1347.43">
        <route edges="-E29 E28 E9 E21 -E18 -E17"/>
    </vehicle>
    <vehicle id="132" depart="1357.71">
        <route edges="E27 E28 E9 E15 -E10 -E16 E1 E2"/>
    </vehicle>
    <vehicle id="133" depart="1368.00">
        <route edges="E14 E21 E19 E20 E9"/>
    </vehicle>
    <vehicle id="134" depart="1378.29">
        <route edges="E17 E18 E19 E20 -E8 -E5 E6 -E0"/>
    </vehicle>
    <vehicle id="135" depart="1388.57">
        <route edges="E26 E8 -E28 -E27 -E25"/>
    </vehicle>
    <vehicle id="136" depart="1398.86">
        <route edges="E18 E19 E20 -E8 -E5 E6"/>
    </vehicle>
    <vehicle id="137" depart="1409.14">
        <route edges="-E16 E1 E2 E12 -E11 -E15"/>
    </vehicle>
    <vehicle id="138" depart="1419.43">
        <route edges="-E14 E17 E18 -E21 E15 E11"/>
    </vehicle>
    <vehicle id="139" depart="1429.71">
        <route edges="-E23 -E22 -E0 E1 E2 E12 E13 E14"/>
    </vehicle>
    <vehicle id="140" depart="1440.00">
        <route edges="E20 -E8 -E5 -E4 -E3 -E2"/>
    </vehicle>
    <vehicle id="141" depart="1450.29">
        <route edges="E16 E4 -E24 -E23"/>
    </vehicle>
    <vehicle id="142" depart="1460.57">
        <route edges="-E9 -E8 E7 -E10 E4"/>
    </vehicle>
    <vehicle id="143" depart="1470.86">
        <route edges="E28 E9 -E14 -E13"/>
    </vehicle>
    <vehicle id="144" depart="1481.14">
        <route edges="-E5 -E24"/>
    </vehicle>
    <vehicle id="145" depart="1491.43">
        <route edges="-E0 E16 E4 E6 E22 E23"/>
    </vehicle>
    <vehicle id="146" depart="1501.71">
        <route edges="E16 E4 -E24 -E23"/>
    </vehicle>
    <vehicle id="147" depart="1512.00">
        <route edges="E21 E19 E20 -E8 E7 E11"/>
    </vehicle>
    <vehicle id="148" depart="1522.29">
        <route edges="-E5 E6 -E0"/>
    </vehicle>
    <vehicle id="149" depart="1532.57">
        <route edges="-E12 E3"/>
    </vehicle>
    <vehicle id="150" depart="1542.86">
        <route edges="E4 E6 -E0 E16 E10"/>
    </vehicle>
    <vehicle id="151" depart="1553.14">
        <route edges="E27 E28 E9 E15 E11 E13"/>
    </vehicle>
    <vehicle id="152" depart="1563.43">
        <route edges="-E17 -E13 -E11 -E15"/>
    </vehicle>
    <vehicle id="153" depart="1573.71">
        <route edges="-E26 E27 E29 E30"/>
    </vehicle>
    <vehicle id="154" depart="1584.00">
        <route edges="E25 E27 E29"/>
    </vehicle>
    <vehicle id="155" depart="1594.29">
        <route edges="E30 -E19 -E21 -E9 -E20"/>
    </vehicle>
    <vehicle id="156" depart="1604.57">
        <route edges="-E22 -E0 E16 E10 -E15 -E14"/>
    </vehicle>
    <vehicle id="157" depart="1614.86">
        <route edges="E24 -E4 -E16 E1 E2 E3"/>
    </vehicle>
    <vehicle id="158" depart="1625.14">
        <route edges="-E4 -E3 E12 E13 E14 E15"/>
    </vehicle>
    <vehicle id="159" depart="1635.43">
        <route edges="-E17 -E13 -E12 E3 E4 E5"/>
    </vehicle>
    <vehicle id="160" depart="1645.71">
        <route edges="E29 E30 E20 -E28 -E27 E26 E8"/>
    </vehicle>
    <vehicle id="161" depart="1656.00">
        <route edges="E26 E7 E11 -E12 E3"/>
    </vehicle>
    <vehicle id="162" depart="1666.29">
        <route edges="-E1 E16 E10 -E15 E21"/>
    </vehicle>
    <vehicle id="163" depart="1676.57">
        <route edges="-E27 -E25 E24 E5"/>
    </vehicle>
    <vehicle id="164" depart="1686.86">
        <route edges="E25 E27 E29"/>
    </vehicle>
    <vehicle id="165" depart="1697.14">
        <route edges="E26 -E5 -E24 -E23"/>
    </vehicle>
    <vehicle id="166" depart="1707.43">
        <route edges="E24 -E4 E10 -E15 -E14"/>
    </vehicle>
    <vehicle id="167" depart="1717.71">
        <route edges="E3 E4 -E24 E25 E27 E29"/>
    </vehicle>
    <vehicle id="168" depart="1728.00">
        <route edges="-E20 -E30 -E29 -E27 E26"/>
    </vehicle>
    <vehicle id="169" depart="1738.29">
        <route edges="-E7 -E26 -E25"/>
    </vehicle>
    <vehicle id="170" depart="1748.57">
        <route edges="E25 E27 E29 E30 -E19 -E21"/>
    </vehicle>
    <vehicle id="171" depart="1758.86">
        <route edges="-E1 E0 -E6 E5 E8 -E20 -E19"/>
    </vehicle>
    <vehicle id="172" depart="1769.14">
        <route edges="-E27 E26 E8 -E28 E29"/>
    </vehicle>
    <vehicle id="173" depart="1779.43">
        <route edges="E7 -E10 E4 -E24"/>
    </vehicle>
    <vehicle id="174" depart="1789.71">
        <route edges="E16 E10 -E15 E21 E19 -E30"/>
    </vehicle>
    <vehicle id="175" depart="1800.00">
        <route edges="E8 -E28 -E27 -E25 E24 -E4 E10"/>
    </vehicle>
    <vehicle id="176" depart="1810.29">
        <route edges="E6 -E0 E16 E10 -E15"/>
    </vehicle>
    <vehicle id="177" depart="1820.57">
        <route edges="E8 -E20 -E19"/>
    </vehicle>
    <vehicle id="178" depart="1830.86">
        <route edges="E7 -E10 E4 -E24 -E23"/>
    </vehicle>
    <vehicle id="179" depart="1841.14">
        <route edges="-E14 -E13 -E11 -E7 -E5"/>
    </vehicle>
    <vehicle id="180" depart="1851.43">
        <route edges="E21 E19 E20 -E8 -E26"/>
    </vehicle>
    <vehicle id="181" depart="1861.71">
        <route edges="E14 E15 -E10 -E16 E0"/>
    </vehicle>
    <vehicle id="182" depart="1872.00">
        <route edges="-E3 E12"/>
    </vehicle>
    <vehicle id="183" depart="1882.29">
        <route edges="-E22 -E0 E1 E2"/>
    </vehicle>
    <vehicle id="184" depart="1892.57">
        <route edges="-E0 E16 E4 E5"/>
    </vehicle>
    <vehicle id="185" depart="1902.86">
        <route edges="E10 -E15 E21 E19 E20"/>
    </vehicle>
    <vehicle id="186" depart="1913.14">
        <route edges="E22 E23 E25 E27 E28 E9 -E14 E17 E18"/>
    </vehicle>
    <vehicle id="187" depart="1923.43">
        <route edges="-E29 -E27 E26 E7 E11 -E12"/>
    </vehicle>
    <vehicle id="188" depart="1933.71">
        <route edges="E18 E19 -E30 -E29 -E27"/>
    </vehicle>
    <vehicle id="189" depart="1944.00">
        <route edges="-E26 E27 E28"/>
    </vehicle>
    <vehicle id="190" depart="1954.29">
        <route edges="E20 -E8 -E26 -E25"/>
    </vehicle>
    <vehicle id="191" depart="1964.57">
        <route edges="-E26 -E25 E24 -E4"/>
    </vehicle>
    <vehicle id="192" depart="1974.86">
        <route edges="-E30 -E29 -E27 -E25"/>
    </vehicle>
    <vehicle id="193" depart="1985.14">
        <route edges="-E15 -E9 -E8 -E5"/>
    </vehicle>
    <vehicle id="194" depart="1995.43">
        <route edges="E6 -E0 E1 E2 E12 E13 E17 E18"/>
    </vehicle>
    <vehicle id="195" depart="2005.71">
        <route edges="E30 -E19 -E21 E15"/>
    </vehicle>
    <vehicle id="196" depart="2016.00">
        <route edges="-E25 E24 -E4 E10"/>
    </vehicle>
    <vehicle id="197" depart="2026.29">
        <route edges="-E0 E16 E4 -E24"/>
    </vehicle>
    <vehicle id="198" depart="2036.57">
        <route edges="-E5 -E4 -E3 E12"/>
    </vehicle>
    <vehicle id="199" depart="2046.86">
        <route edges="E17 E18 -E21 E15 -E7"/>
    </vehicle>
    <vehicle id="200" depart="2057.14">
        <route edges="-E6 E5 E8 -E20"/>
    </vehicle>
    <vehicle id="201" depart="2067.43">
        <route edges="-E8 -E26 E27 E29 E30"/>
    </vehicle>
    <vehicle id="202" depart="2077.71">
        <route edges="E25 E27 E29 E30 -E19 -E18"/>
    </vehicle>
    <vehicle id="203" depart="2088.00">
        <route edges="-E13 -E12 -E2 -E1 E0"/>
    </vehicle>
    <vehicle id="204" depart="2098.29">
        <route edges="E16 E10 -E15 -E9 -E28 -E27"/>
    </vehicle>
    <vehicle id="205" depart="2108.57">
        <route edges="E26 -E5 E6 E22"/>
    </vehicle>
    <vehicle id="206" depart="2118.86">
        <route edges="E18 -E21 -E9 -E20"/>
    </vehicle>
    <vehicle id="207" depart="2129.14">
        <route edges="-E2 -E1"/>
    </vehicle>
    <vehicle id="208" depart="2139.43">
        <route edges="-E22 -E0 E16 E10 -E15 -E9 -E8"/>
    </vehicle>
    <vehicle id="209" depart="2149.71">
        <route edges="E28 E9 -E14 -E13 -E12"/>
    </vehicle>
    <vehicle id="210" depart="2160.00">
        <route edges="-E4 -E3 -E2 -E1 E16"/>
    </vehicle>
    <vehicle id="211" depart="2170.29">
        <route edges="-E2 -E1 E16 E4 E6 -E0 E1 E2"/>
    </vehicle>
    <vehicle id="212" depart="2180.57">
        <route edges="-E9 -E28 -E27 -E25 -E23 -E22"/>
    </vehicle>
    <vehicle id="213" depart="2190.86">
        <route edges="E17 E18 E19 E20 -E8 -E5 E6 -E0"/>
    </vehicle>
    <vehicle id="214" depart="2201.14">
        <route edges="E22 E23"/>
    </vehicle>
    <vehicle id="215" depart="2211.43">
        <route edges="-E14 -E13 -E11 -E7 -E5"/>
    </vehicle>
    <vehicle id="216" depart="2221.71">
        <route edges="-E18 -E17 E14 -E9 -E8 E7"/>
    </vehicle>
    <vehicle id="217" depart="2232.00">
        <route edges="E1 E2 E12 -E11"/>
    </vehicle>
    <vehicle id="218" depart="2242.29">
        <route edges="-E22 -E6 E5 -E26 E27 E28"/>
    </vehicle>
    <vehicle id="219" depart="2252.57">
        <route edges="-E7 -E5 -E24 E25"/>
    </vehicle>
    <vehicle id="220" depart="2262.86">
        <route edges="E18 E19 E20 E9"/>
    </vehicle>
    <vehicle id="221" depart="2273.14">
        <route edges="E13 E14 -E9 -E8 -E5 E6"/>
    </vehicle>
    <vehicle id="222" depart="2283.43">
        <route edges="E30 -E19 -E18 -E17 E14"/>
    </vehicle>
    <vehicle id="223" depart="2293.71">
        <route edges="E20 -E8 -E5 -E4 -E16 E0"/>
    </vehicle>
    <vehicle id="224" depart="2304.00">
        <route edges="E27 E28 -E8 -E5 -E4 E10"/>
    </vehicle>
    <vehicle id="225" depart="2314.29">
        <route edges="E30 E20 -E8 -E5 E6 E22"/>
    </vehicle>
    <vehicle id="226" depart="2324.57">
        <route edges="-E8 -E5 -E24 -E23"/>
    </vehicle>
    <vehicle id="227" depart="2334.86">
        <route edges="-E22 -E0 E16"/>
    </vehicle>
    <vehicle id="228" depart="2345.14">
        <route edges="E23 E24 -E4 -E16 E1"/>
    </vehicle>
    <vehicle id="229" depart="2355.43">
        <route edges="E15 -E10 E4 -E24"/>
    </vehicle>
    <vehicle id="230" depart="2365.71">
        <route edges="-E12 E3 E4 -E24"/>
    </vehicle>
    <vehicle id="231" depart="2376.00">
        <route edges="-E23 -E22 -E6 E5 -E26"/>
    </vehicle>
    <vehicle id="232" depart="2386.29">
        <route edges="E10 -E7 -E5 -E4 -E16"/>
    </vehicle>
    <vehicle id="233" depart="2396.57">
        <route edges="-E21 E15 -E10 -E16 E1 E2"/>
    </vehicle>
    <vehicle id="234" depart="2406.86">
        <route edges="E2 E12 -E11"/>
    </vehicle>
    <vehicle id="235" depart="2417.14">
        <route edges="-E4 E10"/>
    </vehicle>
    <vehicle id="236" depart="2427.43">
        <route edges="-E4 -E3 -E2"/>
    </vehicle>
    <vehicle id="237" depart="2437.71">
        <route edges="-E5 E6 -E0 E16 E4"/>
    </vehicle>
    <vehicle id="238" depart="2448.00">
        <route edges="E13 E14 E15 -E10 -E16 E1 E2"/>
    </vehicle>
    <vehicle id="239" depart="2458.29">
        <route edges="E29 E30 E20 -E8 -E5 E6 E22 E23"/>
    </vehicle>
    <vehicle id="240" depart="2468.57">
        <route edges="-E3 E12 -E11 -E7 -E5 E6 -E0"/>
    </vehicle>
    <vehicle id="241" depart="2478.86">
        <route edges="-E28 -E27 E26 -E5 E6 E22"/>
    </vehicle>
    <vehicle id="242" depart="2489.14">
        <route edges="E28 -E8 E7"/>
    </vehicle>
    <vehicle id="243" depart="2499.43">
        <route edges="-E4 -E16 E0 E22"/>
    </vehicle>
    <vehicle id="244" depart="2509.71">
        <route edges="E10 E11 E13 E14"/>
    </vehicle>
    <vehicle id="245" depart="2520.00">
        <route edges="-E20"/>
    </vehicle>
    <vehicle id="246" depart="2530.29">
        <route edges="-E6 -E4 -E3 -E2 -E1"/>
    </vehicle>
    <vehicle id="247" depart="2540.57">
        <route edges="-E27 E26 E7 -E15 E21 E19"/>
    </vehicle>
    <vehicle id="248" depart="2550.86">
        <route edges="-E4 E10 -E15 E21 -E18"/>
    </vehicle>
    <vehicle id="249" depart="2561.14">
        <route edges="-E7 -E5 -E4 E10 -E15"/>
    </vehicle>
    <vehicle id="250" depart="2571.43">
        <route edges="E15 E11 -E12 -E2 -E1"/>
    </vehicle>
    <vehicle id="251" depart="2581.71">
        <route edges="-E30 -E29 -E27 E26 E7 E11"/>
    </vehicle>
    <vehicle id="252" depart="2592.00">
        <route edges="-E1 E16"/>
    </vehicle>
    <vehicle id="253" depart="2602.29">
        <route edges="-E16 E1 E2 E12 -E11 -E7"/>
    </vehicle>
    <vehicle id="254" depart="2612.57">
        <route edges="-E11 -E10 -E3"/>
    </vehicle>
    <vehicle id="255" depart="2622.86">
        <route edges="-E20 -E30 -E29 -E27"/>
    </vehicle>
    <vehicle id="256" depart="2633.14">
        <route edges="E23 E24 -E4 -E3"/>
    </vehicle>
    <vehicle id="257" depart="2643.43">
        <route edges="E22 E23 E25 E27"/>
    </vehicle>
    <vehicle id="258" depart="2653.71">
        <route edges="-E22 -E0 E16 E10 -E15 -E14 -E13"/>
    </vehicle>
    <vehicle id="259" depart="2664.00">
        <route edges="-E1 E16 E10"/>
    </vehicle>
    <vehicle id="260" depart="2674.29">
        <route edges="E9 E21 E19 E20 -E28"/>
    </vehicle>
    <vehicle id="261" depart="2684.57">
        <route edges="E17 E18 E19 -E30 -E29 -E27 -E25 E24"/>
    </vehicle>
    <vehicle id="262" depart="2694.86">
        <route edges="E17 E18 E19 E20 -E8 -E5 E6 E22"/>
    </vehicle>
    <vehicle id="263" depart="2705.14">
        <route edges="E6 -E0 E16 -E3 -E2"/>
    </vehicle>
    <vehicle id="264" depart="2715.43">
        <route edges="-E1 E16 E10 -E15 E21 -E18 -E17"/>
    </vehicle>
    <vehicle id="265" depart="2725.71">
        <route edges="-E15 -E14 E17 E18"/>
    </vehicle>
    <vehicle id="266" depart="2736.00">
        <route edges="E11 E13 E14 -E9 -E20"/>
    </vehicle>
    <vehicle id="267" depart="2746.29">
        <route edges="E2 E3 E4 E6 E22 E23"/>
    </vehicle>
    <vehicle id="268" depart="2756.57">
        <route edges="-E18 -E17 E14"/>
    </vehicle>
    <vehicle id="269" depart="2766.86">
        <route edges="E22 E23 E25 E26 E7 -E15"/>
    </vehicle>
    <vehicle id="270" depart="2777.14">
        <route edges="E26 E7"/>
    </vehicle>
    <vehicle id="271" depart="2787.43">
        <route edges="-E14 -E13 -E12 -E2 -E1"/>
    </vehicle>
    <vehicle id="272" depart="2797.71">
        <route edges="-E26 E27 E28 E9 -E14 E17 E18"/>
    </vehicle>
    <vehicle id="273" depart="2808.00">
        <route edges="E7 -E15 E21 E19 -E30"/>
    </vehicle>
    <vehicle id="274" depart="2818.29">
        <route edges="E20 -E8 E7 E11 -E12"/>
    </vehicle>
    <vehicle id="275" depart="2828.57">
        <route edges="E19 E20 E9 E15"/>
    </vehicle>
    <vehicle id="276" depart="2838.86">
        <route edges="-E14 -E13 -E12 -E2 -E1 E0 E22 E23"/>
    </vehicle>
    <vehicle id="277" depart="2849.14">
        <route edges="E28 E9 E15 E11 E13 E14"/>
    </vehicle>
    <vehicle id="278" depart="2859.43">
        <route edges="-E15 -E9 -E28 -E27 E26 E8"/>
    </vehicle>
    <vehicle id="279" depart="2869.71">
        <route edges="E24 E5 E8 -E28"/>
    </vehicle>
    <vehicle id="280" depart="2880.00">
        <route edges="-E5 -E4 E10 -E15 E21 E19 -E30 -E29"/>
    </vehicle>
    <vehicle id="281" depart="2890.29">
        <route edges="E0 -E6 E5 E8 -E28"/>
    </vehicle>
    <vehicle id="282" depart="2900.57">
        <route edges="E28 -E20 -E30 -E29 -E27 E26"/>
    </vehicle>
    <vehicle id="283" depart="2910.86">
        <route edges="-E14 E17 E18 E19 E20 -E8 E7"/>
    </vehicle>
    <vehicle id="284" depart="2921.14">
        <route edges="E16 E10 -E7 -E26 E27"/>
    </vehicle>
    <vehicle id="285" depart="2931.43">
        <route edges="E2 E3 -E16 E0 -E6"/>
    </vehicle>
    <vehicle id="286" depart="2941.71">
        <route edges="E21 E19 E20 -E8 E7"/>
    </vehicle>
    <vehicle id="287" depart="2952.00">
        <route edges="-E23 -E22 -E6 -E24 E25 E26"/>
    </vehicle>
    <vehicle id="288" depart="2962.29">
        <route edges="E10 -E15 -E9 -E8"/>
    </vehicle>
    <vehicle id="289" depart="2972.57">
        <route edges="-E6 E5 E8 E9 E21"/>
    </vehicle>
    <vehicle id="290" depart="2982.86">
        <route edges="-E23 -E22 -E6 E5 -E26 E27 E28"/>
    </vehicle>
    <vehicle id="291" depart="2993.14">
        <route edges="E27 E28 E9 -E14 -E13"/>
    </vehicle>
    <vehicle id="292" depart="3003.43">