<?xml version="1.0" encoding="UTF-8"?>

<!-- generated on 2022-11-30 20:49:59.498719 by random_trips.py UNKNOWN
<configuration>
    <begin value="7200"/>
    <end value="10800"/>
    <insertion-rate value="200.0"/>
    <net-file value="3_4trafficgrid2.net.xml"/>
    <output-trip-file value="rtraffic3.trips.trips.xml"/>
</configuration>
-->

<routes xmlns:xsi="http://www.w3.org/2001/XMLSchema-instance" xsi:noNamespaceSchemaLocation="http://sumo.dlr.de/xsd/routes_file.xsd">
    <trip id="500" depart="7200.00" from="E16" to="-E1"/>
    <trip id="501" depart="7218.00" from="-E24" to="-E20"/>
    <trip id="502" depart="7236.00" from="E21" to="E18"/>
    <trip id="503" depart="7254.00" from="E30" to="-E13"/>
    <trip id="504" depart="7272.00" from="-E5" to="-E1"/>
    <trip id="505" depart="7290.00" from="-E20" to="E0"/>
    <trip id="506" depart="7308.00" from="-E1" to="-E2"/>
    <trip id="507" depart="7326.00" from="E17" to="E10"/>
    <trip id="508" depart="7344.00" from="-E20" to="E13"/>
    <trip id="509" depart="7362.00" from="E26" to="-E0"/>
    <trip id="510" depart="7380.00" from="E25" to="E2"/>
    <trip id="511" depart="7398.00" from="-E28" to="-E17"/>
    <trip id="512" depart="7416.00" from="E7" to="-E27"/>
    <trip id="513" depart="7434.00" from="-E13" to="-E13"/>
    <trip id="514" depart="7452.00" from="E28" to="E14"/>
    <trip id="515" depart="7470.00" from="E26" to="E21"/>
    <trip id="516" depart="7488.00" from="E10" to="E8"/>
    <trip id="517" depart="7506.00" from="-E3" to="E11"/>
    <trip id="518" depart="7524.00" from="E27" to="E15"/>
    <trip id="519" depart="7542.00" from="E29" to="E12"/>
    <trip id="520" depart="7560.00" from="E2" to="-E10"/>
    <trip id="521" depart="7578.00" from="-E21" to="-E24"/>
    <trip id="522" depart="7596.00" from="-E12" to="-E21"/>
    <trip id="523" depart="7614.00" from="-E14" to="-E24"/>
    <trip id="524" depart="7632.00" from="E16" to="-E29"/>
    <trip id="525" depart="7650.00" from="-E29" to="-E2"/>
    <trip id="526" depart="7668.00" from="-E23" to="E6"/>
    <trip id="527" depart="7686.00" from="E17" to="E14"/>
    <trip id="528" depart="7704.00" from="-E18" to="E21"/>
    <trip id="529" depart="7722.00" from="-E18" to="-E3"/>
    <trip id="530" depart="7740.00" from="E9" to="E16"/>
    <trip id="531" depart="7758.00" from="E11" to="E19"/>
    <trip id="532" depart="7776.00" from="E28" to="E24"/>
    <trip id="533" depart="7794.00" from="-E21" to="-E1"/>
    <trip id="534" depart="7812.00" from="-E26" to="-E23"/>
    <trip id="535" depart="7830.00" from="-E20" to="E6"/>
    <trip id="536" depart="7848.00" from="E3" to="-E26"/>
    <trip id="537" depart="7866.00" from="E17" to="-E30"/>
    <trip id="538" depart="7884.00" from="E4" to="-E7"/>
    <trip id="539" depart="7902.00" from="-E23" to="-E22"/>
    <trip id="540" depart="7920.00" from="E11" to="-E23"/>
    <trip id="541" depart="7938.00" from="E13" to="E30"/>
    <trip id="542" depart="7956.00" from="-E30" to="-E20"/>
    <trip id="543" depart="7974.00" from="E9" to="E0"/>
    <trip id="544" depart="7992.00" from="-E13" to="-E10"/>
    <trip id="545" depart="8010.00" from="-E14" to="E15"/>
    <trip id="546" depart="8028.00" from="E25" to="-E5"/>
    <trip id="547" depart="8046.00" from="-E11" to="-E3"/>
    <trip id="548" depart="8064.00" from="E9" to="E1"/>
    <trip id="549" depart="8082.00" from="E8" to="E29"/>
    <trip id="550" depart="8100.00" from="-E0" to="E20"/>
    <trip id="551" depart="8118.00" from="E19" to="E10"/>
    <trip id="552" depart="8136.00" from="-E23" to="E16"/>
    <trip id="553" depart="8154.00" from="-E14" to="-E5"/>
    <trip id="554" depart="8172.00" from="-E7" to="E7"/>
    <trip id="555" depart="8190.00" from="E3" to="-E23"/>
    <trip id="556" depart="8208.00" from="E0" to="-E19"/>
    <trip id="557" depart="8226.00" from="E4" to="E29"/>
    <trip id="558" depart="8244.00" from="-E25" to="E16"/>
    <trip id="559" depart="8262.00" from="E14" to="-E17"/>
    <trip id="560" depart="8280.00" from="E23" to="E10"/>
    <trip id="561" depart="8298.00" from="E24" to="E1"/>
    <trip id="562" depart="8316.00" from="-E0" to="-E27"/>
    <trip id="563" depart="8334.00" from="-E1" to="E5"/>
    <trip id="564" depart="8352.00" from="E3" to="E27"/>
    <trip id="565" depart="8370.00" from="-E26" to="-E11"/>
    <trip id="566" depart="8388.00" from="E3" to="E6"/>
    <trip id="567" depart="8406.00" from="-E13" to="-E9"/>
    <trip id="568" depart="8424.00" from="-E12" to="E23"/>
    <trip id="569" depart="8442.00" from="E23" to="-E15"/>
    <trip id="570" depart="8460.00" from="-E8" to="E11"/>
    <trip id="571" depart="8478.00" from="-E23" to="E3"/>
    <trip id="572" depart="8496.00" from="-E5" to="-E20"/>
    <trip id="573" depart="8514.00" from="E10" to="E21"/>
    <trip id="574" depart="8532.00" from="-E2" to="-E26"/>
    <trip id="575" depart="8550.00" from="E9" to="E17"/>
    <trip id="576" depart="8568.00" from="-E6" to="E1"/>
    <trip id="577" depart="8586.00" from="-E15" to="-E20"/>
    <trip id="578" depart="8604.00" from="-E27" to="E13"/>
    <trip id="579" depart="8622.00" from="-E21" to="-E20"/>
    <trip id="580" depart="8640.00" from="-E12" to="E16"/>
    <trip id="581" depart="8658.00" from="-E21" to="E4"/>
    <trip id="582" depart="8676.00" from="E29" to="-E12"/>
    <trip id="583" depart="8694.00" from="-E21" to="E18"/>
    <trip id="584" depart="8712.00" from="-E20" to="-E16"/>
    <trip id="585" depart="8730.00" from="E6" to="E12"/>
    <trip id="586" depart="8748.00" from="-E8" to="E24"/>
    <trip id="587" depart="8766.00" from="E26" to="-E19"/>
    <trip id="588" depart="8784.00" from="-E14" to="-E5"/>
    <trip id="589" depart="8802.00" from="-E5" to="-E7"/>
    <trip id="590" depart="8820.00" from="E21" to="E18"/>
    <trip id="591" depart="8838.00" from="E9" to="-E14"/>
    <trip id="592" depart="8856.00" from="-E30" to="-E28"/>
    <trip id="593" depart="8874.00" from="E29" to="-E22"/>
    <trip id="594" depart="8892.00" from="-E19" to="-E6"/>
    <trip id="595" depart="8910.00" from="-E5" to="-E24"/>
    <trip id="596" depart="8928.00" from="-E22" to="E5"/>
    <trip id="597" depart="8946.00" from="-E6" to="E29"/>
    <trip id="598" depart="8964.00" from="E11" to="-E11"/>
    <trip id="599" depart="8982.00" from="E9" to="E27"/>
    <trip id="600" depart="9000.00" from="E8" to="E5"/>
    <trip id="601" depart="9018.00" from="E28" to="-E18"/>
    <trip id="602" depart="9036.00" from="-E9" to="-E20"/>
    <trip id="603" depart="9054.00" from="-E30" to="-E11"/>
    <trip id="604" depart="9072.00" from="-E3" to="E9"/>
    <trip id="605" depart="9090.00" from="-E23" to="E24"/>
    <trip id="606" depart="9108.00" from="-E7" to="-E5"/>
    <trip id="607" depart="9126.00" from="E7" to="E9"/>
    <trip id="608" depart="9144.00" from="E11" to="E20"/>
    <trip id="609" depart="9162.00" from="-E17" to="-E25"/>
    <trip id="610" depart="9180.00" from="E8" to="E12"/>
    <trip id="611" depart="9198.00" from="E10" to="E22"/>
    <trip id="612" depart="9216.00" from="-E11" to="E13"/>
    <trip id="613" depart="9234.00" from="E0" to="E28"/>
    <trip id="614" depart="9252.00" from="-E17" to="E7"/>
    <trip id="615" depart="9270.00" from="-E12" to="-E19"/>
    <trip id="616" depart="9288.00" from="E13" to="E18"/>
    <trip id="617" depart="9306.00" from="-E21" to="-E15"/>
    <trip id="618" depart="9324.00" from="E30" to="-E22"/>
    <trip id="619" depart="9342.00" from="E13" to="E15"/>
    <trip id="620" depart="9360.00" from="-E4" to="E13"/>
    <trip id="621" depart="9378.00" from="E1" to="E5"/>
    <trip id="622" depart="9396.00" from="-E2" to="E20"/>
    <trip id="623" depart="9414.00" from="-E21" to="-E30"/>
    <trip id="624" depart="9432.00" from="E18" to="-E25"/>
    <trip id="625" depart="9450.00" from="-E26" to="E22"/>
    <trip id="626" depart="9468.00" from="-E12" to="-E7"/>
    <trip id="627" depart="9486.00" from="E9" to="E9"/>
    <trip id="628" depart="9504.00" from="-E12" to="-E20"/>
    <trip id="629" depart="9522.00" from="-E23" to="E5"/>
    <trip id="630" depart="9540.00" from="E3" to="E3"/>
    <trip id="631" depart="9558.00" from="-E29" to="-E17"/>
    <trip id="632" depart="9576.00" from="E27" to="E2"/>
    <trip id="633" depart="9594.00" from="E14" to="E9"/>
    <trip id="634" depart="9612.00" from="E17" to="-E0"/>
    <trip id="635" depart="9630.00" from="E26" to="-E25"/>
    <trip id="636" depart="9648.00" from="E18" to="E6"/>
    <trip id="637" depart="9666.00" from="-E16" to="-E15"/>
    <trip id="638" depart="9684.00" from="-E14" to="E11"/>
    <trip id="639" depart="9702.00" from="-E23" to="E14"/>
    <trip id="640" depart="9720.00" from="E20" to="-E2"/>
    <trip id="641" depart="9738.00" from="E16" to="-E23"/>
    <trip id="642" depart="9756.00" from="-E9" to="E4"/>
    <trip id="643" depart="9774.00" from="E28" to="-E13"/>
    <trip id="644" depart="9792.00" from="-E5" to="-E24"/>
    <trip id="645" depart="9810.00" from="-E0" to="E23"/>
    <trip id="646" depart="9828.00" from="E16" to="-E23"/>
    <trip id="647" depart="9846.00" from="E21" to="E11"/>
    <trip id="648" depart="9864.00" from="-E5" to="-E0"/>
    <trip id="649" depart="9882.00" from="-E12" to="E3"/>
    <trip id="650" depart="9900.00" from="E4" to="E10"/>
    <trip id="651" depart="9918.00" from="E27" to="E13"/>
    <trip id="652" depart="9936.00" from="-E17" to="-E15"/>
    <trip id="653" depart="9954.00" from="-E26" to="E30"/>
    <trip id="654" depart="9972.00" from="E25" to="E29"/>
    <trip id="655" depart="9990.00" from="E30" to="-E20"/>
    <trip id="656" depart="10008.00" from="-E22" to="-E14"/>
    <trip id="657" depart="10026.00" from="E24" to="E3"/>
    <trip id="658" depart="10044.00" from="-E4" to="E15"/>
    <trip id="659" depart="10062.00" from="-E17" to="E5"/>
    <trip id="660" depart="10080.00" from="E29" to="E8"/>
    <trip id="661" depart="10098.00" from="E26" to="E3"/>
    <trip id="662" depart="10116.00" from="-E1" to="E21"/>
    <trip id="663" depart="10134.00" from="-E27" to="E5"/>
    <trip id="664" depart="10152.00" from="E25" to="E29"/>
    <trip id="665" depart="10170.00" from="E26" to="-E23"/>
    <trip id="666" depart="10188.00" from="E24" to="-E14"/>
    <trip id="667" depart="10206.00" from="E3" to="E29"/>
    <trip id="668" depart="10224.00" from="-E20" to="E26"/>
    <trip id="669" depart="10242.00" from="-E7" to="-E25"/>
    <trip id="670" depart="10260.00" from="E25" to="-E21"/>
    <trip id="671" depart="10278.00" from="-E1" to="-E19"/>
    <trip id="672" depart="10296.00" from="-E27" to="E29"/>
    <trip id="673" depart="10314.00" from="E7" to="-E24"/>
    <trip id="674" depart="10332.00" from="E16" to="-E30"/>
    <trip id="675" depart="10350.00" from="E8" to="E10"/>
    <trip id="676" depart="10368.00" from="E6" to="-E15"/>
    <trip id="677" depart="10386.00" from="E8" to="-E19"/>
    <trip id="678" depart="10404.00" from="E7" to="-E23"/>
    <trip id="679" depart="10422.00" from="-E14" to="-E5"/>
    <trip id="680" depart="10440.00" from="E21" to="-E26"/>
    <trip id="681" depart="10458.00" from="E14" to="E0"/>
    <trip id="682" depart="10476.00" from="-E3" to="E12"/>
    <trip id="683" depart="10494.00" from="-E22" to="E2"/>
    <trip id="684" depart="10512.00" from="-E0" to="E5"/>
    <trip id="685" depart="10530.00" from="E10" to="E20"/>
    <trip id="686" depart="10548.00" from="E22" to="E18"/>
    <trip id="687" depart="10566.00" from="-E29" to="-E12"/>
    <trip id="688" depart="10584.00" from="E18" to="-E27"/>
    <trip id="689" depart="10602.00" from="-E26" to="E28"/>
    <trip id="690" depart="10620.00" from="E20" to="-E25"/>
    <trip id="691" depart="10638.00" from="-E26" to="-E4"/>
    <trip id="692" depart="10656.00" from="-E30" to="-E25"/>
    <trip id="693" depart="10674.00" from="-E15" to="-E5"/>
    <trip id="694" depart="10692.00" from="E6" to="E18"/>
    <trip id="695" depart="10710.00" from="E30" to="E15"/>
    <trip id="696" depart="10728.00" from="-E25" to="E10"/>
    <trip id="697" depart="10746.00" from="-E0" to="-E24"/>
    <trip id="698" depart="10764.00" from="-E5" to="E12"/>
    <trip id="699" depart="10782.00" from="E17" to="-E7"/>
</routes>
